Version 4
SHEET 1 880 680
SYMBOL Symbolique 176 144 R0
SYMATTR InstName X1
